L6/1726527/Cargas.dss
! ==========================================================
! CARGAS — mes 01
! BT: UCBT_tab agregada por transformador (kW = ENE/730 h)
! MT: UCMT_tab individual no PAC do consumidor
! fator de escala aplicado: 1
! 0 cargas de MT descartadas por PAC ausente da rede.
! ==========================================================
New Load.BT_336910779_338960724_1 Bus1=node_422847586.1.4 Phases=1 Model=8 zipv=(0.5,0,0.5,1,0,0,0) kv=0.1200 pf=0.92 kW=10.054795 Daily=RUR1_29
New Load.BT_336910779_338960724_2 Bus1=node_422847586.2.4 Phases=1 Model=8 zipv=(0.5,0,0.5,1,0,0,0) kv=0.1200 pf=0.92 kW=10.054795 Daily=RUR1_29
New Load.BT_337852385_339063952_1 Bus1=node_734385693.1.4 Phases=1 Model=8 zipv=(0.5,0,0.5,1,0,0,0) kv=0.1200 pf=0.92 kW=5.534247 Daily=RUR1_29
New Load.BT_337852385_339063952_2 Bus1=node_734385693.2.4 Phases=1 Model=8 zipv=(0.5,0,0.5,1,0,0,0) kv=0.1200 pf=0.92 kW=5.534247 Daily=RUR1_29
New Load.BT_2546314204_2546314203_1 Bus1=node_447252808.1.4 Phases=1 Model=8 zipv=(0.5,0,0.5,1,0,0,0) kv=0.1270 pf=0.92 kW=2.687671 Daily=RES1_25
New Load.BT_2546314204_2546314203_2 Bus1=node_447252808.2.4 Phases=1 Model=8 zipv=(0.5,0,0.5,1,0,0,0) kv=0.1270 pf=0.92 kW=2.687671 Daily=RES1_25
New Load.BT_2546314204_2546314203_3 Bus1=node_447252808.3.4 Phases=1 Model=8 zipv=(0.5,0,0.5,1,0,0,0) kv=0.1270 pf=0.92 kW=2.687671 Daily=RES1_25
New Load.BT_324196310_325260016_1 Bus1=node_417414212.1.4 Phases=1 Model=8 zipv=(0.5,0,0.5,1,0,0,0) kv=0.1270 pf=0.92 kW=6.042922 Daily=RES1_25
New Load.BT_324196310_325260016_2 Bus1=node_417414212.2.4 Phases=1 Model=8 zipv=(0.5,0,0.5,1,0,0,0) kv=0.1270 pf=0.92 kW=6.042922 Daily=RES1_25
New Load.BT_324196310_325260016_3 Bus1=node_417414212.3.4 Phases=1 Model=8 zipv=(0.5,0,0.5,1,0,0,0) kv=0.1270 pf=0.92 kW=6.042922 Daily=RES1_25
New Load.BT_324504412_325201738_1 Bus1=node_416076700.1.4 Phases=1 Model=8 zipv=(0.5,0,0.5,1,0,0,0) kv=0.1270 pf=0.92 kW=8.322831 Daily=RES1_25
New Load.BT_324504412_325201738_2 Bus1=node_416076700.2.4 Phases=1 Model=8 zipv=(0.5,0,0.5,1,0,0,0) kv=0.1270 pf=0.92 kW=8.322831 Daily=RES1_25
New Load.BT_324504412_325201738_3 Bus1=node_416076700.3.4 Phases=1 Model=8 zipv=(0.5,0,0.5,1,0,0,0) kv=0.1270 pf=0.92 kW=8.322831 Daily=RES1_25
New Load.BT_338059101_339025263_1 Bus1=node_422757946.1.4 Phases=1 Model=8 zipv=(0.5,0,0.5,1,0,0,0) kv=0.1200 pf=0.92 kW=0.197945 Daily=RUR1_29
New Load.BT_338059101_339025263_2 Bus1=node_422757946.2.4 Phases=1 Model=8 zipv=(0.5,0,0.5,1,0,0,0) kv=0.1200 pf=0.92 kW=0.197945 Daily=RUR1_29
New Load.BT_337609106_338963681_1 Bus1=node_422754337.1.4 Phases=1 Model=8 zipv=(0.5,0,0.5,1,0,0,0) kv=0.1200 pf=0.92 kW=0.400000 Daily=RUR1_29
New Load.BT_337609106_338963681_2 Bus1=node_422754337.2.4 Phases=1 Model=8 zipv=(0.5,0,0.5,1,0,0,0) kv=0.1200 pf=0.92 kW=0.400000 Daily=RUR1_29
New Load.BT_337609153_338524949_1 Bus1=node_422758636.1.4 Phases=1 Model=8 zipv=(0.5,0,0.5,1,0,0,0) kv=0.1200 pf=0.92 kW=0.117808 Daily=RUR1_29
New Load.BT_337609153_338524949_2 Bus1=node_422758636.2.4 Phases=1 Model=8 zipv=(0.5,0,0.5,1,0,0,0) kv=0.1200 pf=0.92 kW=0.117808 Daily=RUR1_29
New Load.BT_338523827_338524947_1 Bus1=node_416105172.1.4 Phases=1 Model=8 zipv=(0.5,0,0.5,1,0,0,0) kv=0.1200 pf=0.92 kW=0.383562 Daily=RUR1_29
New Load.BT_338523827_338524947_2 Bus1=node_416105172.2.4 Phases=1 Model=8 zipv=(0.5,0,0.5,1,0,0,0) kv=0.1200 pf=0.92 kW=0.383562 Daily=RUR1_29
New Load.BT_338059592_339050018_1 Bus1=node_422756089.1.4 Phases=1 Model=8 zipv=(0.5,0,0.5,1,0,0,0) kv=0.1200 pf=0.92 kW=0.527397 Daily=RUR1_29
New Load.BT_338059592_339050018_2 Bus1=node_422756089.2.4 Phases=1 Model=8 zipv=(0.5,0,0.5,1,0,0,0) kv=0.1200 pf=0.92 kW=0.527397 Daily=RUR1_29
New Load.BT_324344092_325180721_1 Bus1=node_416076694.1.4 Phases=1 Model=8 zipv=(0.5,0,0.5,1,0,0,0) kv=0.1270 pf=0.92 kW=9.171689 Daily=RES1_25
New Load.BT_324344092_325180721_2 Bus1=node_416076694.2.4 Phases=1 Model=8 zipv=(0.5,0,0.5,1,0,0,0) kv=0.1270 pf=0.92 kW=9.171689 Daily=RES1_25
New Load.BT_324344092_325180721_3 Bus1=node_416076694.3.4 Phases=1 Model=8 zipv=(0.5,0,0.5,1,0,0,0) kv=0.1270 pf=0.92 kW=9.171689 Daily=RES1_25
New Load.BT_338289894_339001809_1 Bus1=node_422750974.1.4 Phases=1 Model=8 zipv=(0.5,0,0.5,1,0,0,0) kv=0.1200 pf=0.92 kW=0.688356 Daily=RES1_25
New Load.BT_338289894_339001809_2 Bus1=node_422750974.2.4 Phases=1 Model=8 zipv=(0.5,0,0.5,1,0,0,0) kv=0.1200 pf=0.92 kW=0.688356 Daily=RES1_25
New Load.BT_337852369_339052315_1 Bus1=node_414387437.1.4 Phases=1 Model=8 zipv=(0.5,0,0.5,1,0,0,0) kv=0.1200 pf=0.92 kW=1.213014 Daily=RUR1_29
New Load.BT_337852369_339052315_2 Bus1=node_414387437.2.4 Phases=1 Model=8 zipv=(0.5,0,0.5,1,0,0,0) kv=0.1200 pf=0.92 kW=1.213014 Daily=RUR1_29
New Load.BT_338059681_338963771_1 Bus1=node_422757205.1.4 Phases=1 Model=8 zipv=(0.5,0,0.5,1,0,0,0) kv=0.1200 pf=0.92 kW=0.365753 Daily=RES1_25
New Load.BT_338059681_338963771_2 Bus1=node_422757205.2.4 Phases=1 Model=8 zipv=(0.5,0,0.5,1,0,0,0) kv=0.1200 pf=0.92 kW=0.365753 Daily=RES1_25
New Load.BT_337855465_339025317_1 Bus1=node_2060853893.1.4 Phases=1 Model=8 zipv=(0.5,0,0.5,1,0,0,0) kv=0.1200 pf=0.92 kW=0.408904 Daily=RUR1_29
New Load.BT_337855465_339025317_2 Bus1=node_2060853893.2.4 Phases=1 Model=8 zipv=(0.5,0,0.5,1,0,0,0) kv=0.1200 pf=0.92 kW=0.408904 Daily=RUR1_29
New Load.BT_324344831_325224697_1 Bus1=node_416318605.1.4 Phases=1 Model=8 zipv=(0.5,0,0.5,1,0,0,0) kv=0.1200 pf=0.92 kW=0.328082 Daily=RES1_25
New Load.BT_324344831_325224697_2 Bus1=node_416318605.2.4 Phases=1 Model=8 zipv=(0.5,0,0.5,1,0,0,0) kv=0.1200 pf=0.92 kW=0.328082 Daily=RES1_25
New Load.BT_324662983_325180753_1 Bus1=node_416102001.1.4 Phases=1 Model=8 zipv=(0.5,0,0.5,1,0,0,0) kv=0.1200 pf=0.92 kW=0.254795 Daily=RUR1_29
New Load.BT_324662983_325180753_2 Bus1=node_416102001.2.4 Phases=1 Model=8 zipv=(0.5,0,0.5,1,0,0,0) kv=0.1200 pf=0.92 kW=0.254795 Daily=RUR1_29
New Load.BT_324826579_325183474_1 Bus1=node_1151135595.1.4 Phases=1 Model=8 zipv=(0.5,0,0.5,1,0,0,0) kv=0.1270 pf=0.92 kW=5.037900 Daily=RES1_25
New Load.BT_324826579_325183474_2 Bus1=node_1151135595.2.4 Phases=1 Model=8 zipv=(0.5,0,0.5,1,0,0,0) kv=0.1270 pf=0.92 kW=5.037900 Daily=RES1_25
New Load.BT_324826579_325183474_3 Bus1=node_1151135595.3.4 Phases=1 Model=8 zipv=(0.5,0,0.5,1,0,0,0) kv=0.1270 pf=0.92 kW=5.037900 Daily=RES1_25
New Load.BT_338287443_339024655_1 Bus1=node_416316547.1.4 Phases=1 Model=8 zipv=(0.5,0,0.5,1,0,0,0) kv=0.1200 pf=0.92 kW=0.377397 Daily=RUR1_29
New Load.BT_338287443_339024655_2 Bus1=node_416316547.2.4 Phases=1 Model=8 zipv=(0.5,0,0.5,1,0,0,0) kv=0.1200 pf=0.92 kW=0.377397 Daily=RUR1_29
New Load.BT_324827363_325224954_1 Bus1=node_416399594.1.4 Phases=1 Model=8 zipv=(0.5,0,0.5,1,0,0,0) kv=0.1200 pf=0.92 kW=0.859589 Daily=RES1_25
New Load.BT_324827363_325224954_2 Bus1=node_416399594.2.4 Phases=1 Model=8 zipv=(0.5,0,0.5,1,0,0,0) kv=0.1200 pf=0.92 kW=0.859589 Daily=RES1_25
New Load.BT_337609995_338964062_1 Bus1=node_422755219.1.4 Phases=1 Model=8 zipv=(0.5,0,0.5,1,0,0,0) kv=0.1200 pf=0.92 kW=0.177397 Daily=RES1_25
New Load.BT_337609995_338964062_2 Bus1=node_422755219.2.4 Phases=1 Model=8 zipv=(0.5,0,0.5,1,0,0,0) kv=0.1200 pf=0.92 kW=0.177397 Daily=RES1_25
New Load.BT_338521880_339025208_1 Bus1=node_2264565573.1.4 Phases=1 Model=8 zipv=(0.5,0,0.5,1,0,0,0) kv=0.1200 pf=0.92 kW=0.699315 Daily=RES1_25
New Load.BT_338521880_339025208_2 Bus1=node_2264565573.2.4 Phases=1 Model=8 zipv=(0.5,0,0.5,1,0,0,0) kv=0.1200 pf=0.92 kW=0.699315 Daily=RES1_25
New Load.BT_337611080_339025332_1 Bus1=node_422760259.1.4 Phases=1 Model=8 zipv=(0.5,0,0.5,1,0,0,0) kv=0.1200 pf=0.92 kW=0.128767 Daily=RES1_25
New Load.BT_337611080_339025332_2 Bus1=node_422760259.2.4 Phases=1 Model=8 zipv=(0.5,0,0.5,1,0,0,0) kv=0.1200 pf=0.92 kW=0.128767 Daily=RES1_25
New Load.BT_324502452_1434260703_1 Bus1=node_416278175.1.4 Phases=1 Model=8 zipv=(0.5,0,0.5,1,0,0,0) kv=0.1200 pf=0.92 kW=0.458219 Daily=RES1_25
New Load.BT_324502452_1434260703_2 Bus1=node_416278175.2.4 Phases=1 Model=8 zipv=(0.5,0,0.5,1,0,0,0) kv=0.1200 pf=0.92 kW=0.458219 Daily=RES1_25
New Load.BT_324827850_325180723_1 Bus1=node_416078395.1.4 Phases=1 Model=8 zipv=(0.5,0,0.5,1,0,0,0) kv=0.1270 pf=0.92 kW=3.881279 Daily=RES1_25
New Load.BT_324827850_325180723_2 Bus1=node_416078395.2.4 Phases=1 Model=8 zipv=(0.5,0,0.5,1,0,0,0) kv=0.1270 pf=0.92 kW=3.881279 Daily=RES1_25
New Load.BT_324827850_325180723_3 Bus1=node_416078395.3.4 Phases=1 Model=8 zipv=(0.5,0,0.5,1,0,0,0) kv=0.1270 pf=0.92 kW=3.881279 Daily=RES1_25
New Load.BT_324663007_325183497_1 Bus1=node_416079553.1.4 Phases=1 Model=8 zipv=(0.5,0,0.5,1,0,0,0) kv=0.1200 pf=0.92 kW=0.432877 Daily=COM1_26
New Load.BT_324663007_325183497_2 Bus1=node_416079553.2.4 Phases=1 Model=8 zipv=(0.5,0,0.5,1,0,0,0) kv=0.1200 pf=0.92 kW=0.432877 Daily=COM1_26
New Load.BT_324663488_1262642119_1 Bus1=node_416076454.1.4 Phases=1 Model=8 zipv=(0.5,0,0.5,1,0,0,0) kv=0.1270 pf=0.92 kW=5.377169 Daily=RES1_25
New Load.BT_324663488_1262642119_2 Bus1=node_416076454.2.4 Phases=1 Model=8 zipv=(0.5,0,0.5,1,0,0,0) kv=0.1270 pf=0.92 kW=5.377169 Daily=RES1_25
New Load.BT_324663488_1262642119_3 Bus1=node_416076454.3.4 Phases=1 Model=8 zipv=(0.5,0,0.5,1,0,0,0) kv=0.1270 pf=0.92 kW=5.377169 Daily=RES1_25
New Load.BT_338288684_339024702_1 Bus1=node_422791648.1.4 Phases=1 Model=8 zipv=(0.5,0,0.5,1,0,0,0) kv=0.1200 pf=0.92 kW=0.106164 Daily=RES1_25
New Load.BT_338288684_339024702_2 Bus1=node_422791648.2.4 Phases=1 Model=8 zipv=(0.5,0,0.5,1,0,0,0) kv=0.1200 pf=0.92 kW=0.106164 Daily=RES1_25
New Load.BT_324662913_325156411_1 Bus1=node_416078389.1.4 Phases=1 Model=8 zipv=(0.5,0,0.5,1,0,0,0) kv=0.1270 pf=0.92 kW=9.373516 Daily=RES1_25
New Load.BT_324662913_325156411_2 Bus1=node_416078389.2.4 Phases=1 Model=8 zipv=(0.5,0,0.5,1,0,0,0) kv=0.1270 pf=0.92 kW=9.373516 Daily=RES1_25
New Load.BT_324662913_325156411_3 Bus1=node_416078389.3.4 Phases=1 Model=8 zipv=(0.5,0,0.5,1,0,0,0) kv=0.1270 pf=0.92 kW=9.373516 Daily=RES1_25
New Load.BT_337611209_339064045_1 Bus1=node_422756815.1.4 Phases=1 Model=8 zipv=(0.5,0,0.5,1,0,0,0) kv=0.1200 pf=0.92 kW=0.202055 Daily=RUR1_29
New Load.BT_337611209_339064045_2 Bus1=node_422756815.2.4 Phases=1 Model=8 zipv=(0.5,0,0.5,1,0,0,0) kv=0.1200 pf=0.92 kW=0.202055 Daily=RUR1_29
New Load.BT_324502995_325180720_1 Bus1=node_416077186.1.4 Phases=1 Model=8 zipv=(0.5,0,0.5,1,0,0,0) kv=0.1270 pf=0.92 kW=3.936073 Daily=RES1_25
New Load.BT_324502995_325180720_2 Bus1=node_416077186.2.4 Phases=1 Model=8 zipv=(0.5,0,0.5,1,0,0,0) kv=0.1270 pf=0.92 kW=3.936073 Daily=RES1_25
New Load.BT_324502995_325180720_3 Bus1=node_416077186.3.4 Phases=1 Model=8 zipv=(0.5,0,0.5,1,0,0,0) kv=0.1270 pf=0.92 kW=3.936073 Daily=RES1_25
New Load.BT_324502292_325223299_1 Bus1=node_416277989.1.4 Phases=1 Model=8 zipv=(0.5,0,0.5,1,0,0,0) kv=0.1200 pf=0.92 kW=0.289726 Daily=RES1_25
New Load.BT_324502292_325223299_2 Bus1=node_416277989.2.4 Phases=1 Model=8 zipv=(0.5,0,0.5,1,0,0,0) kv=0.1200 pf=0.92 kW=0.289726 Daily=RES1_25
New Load.BT_456705629_456705628_1 Bus1=node_726278759.1.4 Phases=1 Model=8 zipv=(0.5,0,0.5,1,0,0,0) kv=0.1200 pf=0.92 kW=0.463699 Daily=RUR1_29
New Load.BT_456705629_456705628_2 Bus1=node_726278759.2.4 Phases=1 Model=8 zipv=(0.5,0,0.5,1,0,0,0) kv=0.1200 pf=0.92 kW=0.463699 Daily=RUR1_29
New Load.BT_337608193_339053015_1 Bus1=node_422756818.1.4 Phases=1 Model=8 zipv=(0.5,0,0.5,1,0,0,0) kv=0.1200 pf=0.92 kW=1.293836 Daily=RES1_25
New Load.BT_337608193_339053015_2 Bus1=node_422756818.2.4 Phases=1 Model=8 zipv=(0.5,0,0.5,1,0,0,0) kv=0.1200 pf=0.92 kW=1.293836 Daily=RES1_25
New Load.BT_324503684_1054619287_1 Bus1=node_714195289.1.4 Phases=1 Model=8 zipv=(0.5,0,0.5,1,0,0,0) kv=0.1200 pf=0.92 kW=1.961644 Daily=RES1_25
New Load.BT_324503684_1054619287_2 Bus1=node_714195289.2.4 Phases=1 Model=8 zipv=(0.5,0,0.5,1,0,0,0) kv=0.1200 pf=0.92 kW=1.961644 Daily=RES1_25
New Load.BT_337855392_339064064_1 Bus1=node_422757241.1.4 Phases=1 Model=8 zipv=(0.5,0,0.5,1,0,0,0) kv=0.1200 pf=0.92 kW=0.217123 Daily=COM1_26
New Load.BT_337855392_339064064_2 Bus1=node_422757241.2.4 Phases=1 Model=8 zipv=(0.5,0,0.5,1,0,0,0) kv=0.1200 pf=0.92 kW=0.217123 Daily=COM1_26
New Load.BT_337855725_339028232_1 Bus1=node_416254593.1.4 Phases=1 Model=8 zipv=(0.5,0,0.5,1,0,0,0) kv=0.1200 pf=0.92 kW=0.491781 Daily=RES1_25
New Load.BT_337855725_339028232_2 Bus1=node_416254593.2.4 Phases=1 Model=8 zipv=(0.5,0,0.5,1,0,0,0) kv=0.1200 pf=0.92 kW=0.491781 Daily=RES1_25
New Load.BT_338061585_339025206_1 Bus1=node_416104416.1.4 Phases=1 Model=8 zipv=(0.5,0,0.5,1,0,0,0) kv=0.1200 pf=0.92 kW=0.256849 Daily=RES1_25
New Load.BT_338061585_339025206_2 Bus1=node_416104416.2.4 Phases=1 Model=8 zipv=(0.5,0,0.5,1,0,0,0) kv=0.1200 pf=0.92 kW=0.256849 Daily=RES1_25
New Load.BT_338285734_339064122_1 Bus1=node_412326914.1.4 Phases=1 Model=8 zipv=(0.5,0,0.5,1,0,0,0) kv=0.1200 pf=0.92 kW=0.336301 Daily=RES1_25
New Load.BT_338285734_339064122_2 Bus1=node_412326914.2.4 Phases=1 Model=8 zipv=(0.5,0,0.5,1,0,0,0) kv=0.1200 pf=0.92 kW=0.336301 Daily=RES1_25
New Load.BT_338287962_339050003_1 Bus1=node_422758093.1.4 Phases=1 Model=8 zipv=(0.5,0,0.5,1,0,0,0) kv=0.1200 pf=0.92 kW=0.819863 Daily=RES1_25
New Load.BT_338287962_339050003_2 Bus1=node_422758093.2.4 Phases=1 Model=8 zipv=(0.5,0,0.5,1,0,0,0) kv=0.1200 pf=0.92 kW=0.819863 Daily=RES1_25
New Load.BT_1228878501_1228878502_1 Bus1=node_446909662.1.4 Phases=1 Model=8 zipv=(0.5,0,0.5,1,0,0,0) kv=0.1200 pf=0.92 kW=1.414384 Daily=RES1_25
New Load.BT_1228878501_1228878502_2 Bus1=node_446909662.2.4 Phases=1 Model=8 zipv=(0.5,0,0.5,1,0,0,0) kv=0.1200 pf=0.92 kW=1.414384 Daily=RES1_25
New Load.BT_324345058_325197918_1 Bus1=node_416278337.1.4 Phases=1 Model=8 zipv=(0.5,0,0.5,1,0,0,0) kv=0.1200 pf=0.92 kW=2.800685 Daily=RES1_25
New Load.BT_324345058_325197918_2 Bus1=node_416278337.2.4 Phases=1 Model=8 zipv=(0.5,0,0.5,1,0,0,0) kv=0.1200 pf=0.92 kW=2.800685 Daily=RES1_25
New Load.BT_337607173_339027170_1 Bus1=node_417413333.1.4 Phases=1 Model=8 zipv=(0.5,0,0.5,1,0,0,0) kv=0.1200 pf=0.92 kW=0.270548 Daily=RES1_25
New Load.BT_337607173_339027170_2 Bus1=node_417413333.2.4 Phases=1 Model=8 zipv=(0.5,0,0.5,1,0,0,0) kv=0.1200 pf=0.92 kW=0.270548 Daily=RES1_25
New Load.BT_324824126_325155488_1 Bus1=node_417414218.1.4 Phases=1 Model=8 zipv=(0.5,0,0.5,1,0,0,0) kv=0.1270 pf=0.92 kW=0.726027 Daily=RES1_25
New Load.BT_324824126_325155488_2 Bus1=node_417414218.2.4 Phases=1 Model=8 zipv=(0.5,0,0.5,1,0,0,0) kv=0.1270 pf=0.92 kW=0.726027 Daily=RES1_25
New Load.BT_324824126_325155488_3 Bus1=node_417414218.3.4 Phases=1 Model=8 zipv=(0.5,0,0.5,1,0,0,0) kv=0.1270 pf=0.92 kW=0.726027 Daily=RES1_25
New Load.BT_338521840_827913261_1 Bus1=node_416596964.1.4 Phases=1 Model=8 zipv=(0.5,0,0.5,1,0,0,0) kv=0.1200 pf=0.92 kW=0.193836 Daily=RES1_25
New Load.BT_338521840_827913261_2 Bus1=node_416596964.2.4 Phases=1 Model=8 zipv=(0.5,0,0.5,1,0,0,0) kv=0.1200 pf=0.92 kW=0.193836 Daily=RES1_25
New Load.BT_337852867_2675102665_1 Bus1=node_414095229.1.4 Phases=1 Model=8 zipv=(0.5,0,0.5,1,0,0,0) kv=0.1200 pf=0.92 kW=0.145205 Daily=RES1_25
New Load.BT_337852867_2675102665_2 Bus1=node_414095229.2.4 Phases=1 Model=8 zipv=(0.5,0,0.5,1,0,0,0) kv=0.1200 pf=0.92 kW=0.145205 Daily=RES1_25
New Load.BT_324824577_325260056_1 Bus1=node_416102442.1.4 Phases=1 Model=8 zipv=(0.5,0,0.5,1,0,0,0) kv=0.1200 pf=0.92 kW=0.528082 Daily=RES1_25
New Load.BT_324824577_325260056_2 Bus1=node_416102442.2.4 Phases=1 Model=8 zipv=(0.5,0,0.5,1,0,0,0) kv=0.1200 pf=0.92 kW=0.528082 Daily=RES1_25
New Load.BT_324345484_325258797_1 Bus1=node_416076748.1.4 Phases=1 Model=8 zipv=(0.5,0,0.5,1,0,0,0) kv=0.1200 pf=0.92 kW=2.843836 Daily=COM1_26
New Load.BT_324345484_325258797_2 Bus1=node_416076748.2.4 Phases=1 Model=8 zipv=(0.5,0,0.5,1,0,0,0) kv=0.1200 pf=0.92 kW=2.843836 Daily=COM1_26
New Load.BT_324346749_2069188542_1 Bus1=node_2719511996.1.4 Phases=1 Model=8 zipv=(0.5,0,0.5,1,0,0,0) kv=0.1200 pf=0.92 kW=0.743836 Daily=RES1_25
New Load.BT_324346749_2069188542_2 Bus1=node_2719511996.2.4 Phases=1 Model=8 zipv=(0.5,0,0.5,1,0,0,0) kv=0.1200 pf=0.92 kW=0.743836 Daily=RES1_25
New Load.BT_324345231_325183476_1 Bus1=node_416077198.1.4 Phases=1 Model=8 zipv=(0.5,0,0.5,1,0,0,0) kv=0.1270 pf=0.92 kW=3.964840 Daily=RES1_25
New Load.BT_324345231_325183476_2 Bus1=node_416077198.2.4 Phases=1 Model=8 zipv=(0.5,0,0.5,1,0,0,0) kv=0.1270 pf=0.92 kW=3.964840 Daily=RES1_25
New Load.BT_324345231_325183476_3 Bus1=node_416077198.3.4 Phases=1 Model=8 zipv=(0.5,0,0.5,1,0,0,0) kv=0.1270 pf=0.92 kW=3.964840 Daily=RES1_25
New Load.BT_324504401_325260014_1 Bus1=node_416076667.1.4 Phases=1 Model=8 zipv=(0.5,0,0.5,1,0,0,0) kv=0.1270 pf=0.92 kW=1.552968 Daily=RES1_25
New Load.BT_324504401_325260014_2 Bus1=node_416076667.2.4 Phases=1 Model=8 zipv=(0.5,0,0.5,1,0,0,0) kv=0.1270 pf=0.92 kW=1.552968 Daily=RES1_25
New Load.BT_324504401_325260014_3 Bus1=node_416076667.3.4 Phases=1 Model=8 zipv=(0.5,0,0.5,1,0,0,0) kv=0.1270 pf=0.92 kW=1.552968 Daily=RES1_25
New Load.BT_324970721_325180909_1 Bus1=node_416277863.1.4 Phases=1 Model=8 zipv=(0.5,0,0.5,1,0,0,0) kv=0.1200 pf=0.92 kW=2.063699 Daily=RES1_25
New Load.BT_324970721_325180909_2 Bus1=node_416277863.2.4 Phases=1 Model=8 zipv=(0.5,0,0.5,1,0,0,0) kv=0.1200 pf=0.92 kW=2.063699 Daily=RES1_25
New Load.BT_338288517_339002329_1 Bus1=node_414114025.1.4 Phases=1 Model=8 zipv=(0.5,0,0.5,1,0,0,0) kv=0.1200 pf=0.92 kW=0.081507 Daily=COM1_26
New Load.BT_338288517_339002329_2 Bus1=node_414114025.2.4 Phases=1 Model=8 zipv=(0.5,0,0.5,1,0,0,0) kv=0.1200 pf=0.92 kW=0.081507 Daily=COM1_26
New Load.BT_324505462_325258812_1 Bus1=node_416103084.1.4 Phases=1 Model=8 zipv=(0.5,0,0.5,1,0,0,0) kv=0.1200 pf=0.92 kW=0.630137 Daily=RES1_25
New Load.BT_324505462_325258812_2 Bus1=node_416103084.2.4 Phases=1 Model=8 zipv=(0.5,0,0.5,1,0,0,0) kv=0.1200 pf=0.92 kW=0.630137 Daily=RES1_25
New Load.BT_337607708_338963767_1 Bus1=node_422758969.1.4 Phases=1 Model=8 zipv=(0.5,0,0.5,1,0,0,0) kv=0.1200 pf=0.92 kW=0.948630 Daily=RES1_25
New Load.BT_337607708_338963767_2 Bus1=node_422758969.2.4 Phases=1 Model=8 zipv=(0.5,0,0.5,1,0,0,0) kv=0.1200 pf=0.92 kW=0.948630 Daily=RES1_25
New Load.BT_324824911_325258787_1 Bus1=node_416076688.1.4 Phases=1 Model=8 zipv=(0.5,0,0.5,1,0,0,0) kv=0.1270 pf=0.92 kW=5.999543 Daily=RES1_25
New Load.BT_324824911_325258787_2 Bus1=node_416076688.2.4 Phases=1 Model=8 zipv=(0.5,0,0.5,1,0,0,0) kv=0.1270 pf=0.92 kW=5.999543 Daily=RES1_25
New Load.BT_324824911_325258787_3 Bus1=node_416076688.3.4 Phases=1 Model=8 zipv=(0.5,0,0.5,1,0,0,0) kv=0.1270 pf=0.92 kW=5.999543 Daily=RES1_25
New Load.BT_337610014_2096004464_1 Bus1=node_422760241.1.4 Phases=1 Model=8 zipv=(0.5,0,0.5,1,0,0,0) kv=0.1200 pf=0.92 kW=0.404110 Daily=RES1_25
New Load.BT_337610014_2096004464_2 Bus1=node_422760241.2.4 Phases=1 Model=8 zipv=(0.5,0,0.5,1,0,0,0) kv=0.1200 pf=0.92 kW=0.404110 Daily=RES1_25
New Load.BT_337852236_339025243_1 Bus1=node_422757238.1.4 Phases=1 Model=8 zipv=(0.5,0,0.5,1,0,0,0) kv=0.1200 pf=0.92 kW=0.345205 Daily=RES1_25
New Load.BT_337852236_339025243_2 Bus1=node_422757238.2.4 Phases=1 Model=8 zipv=(0.5,0,0.5,1,0,0,0) kv=0.1200 pf=0.92 kW=0.345205 Daily=RES1_25
New Load.BT_324972568_325223266_1 Bus1=node_416044788.1.4 Phases=1 Model=8 zipv=(0.5,0,0.5,1,0,0,0) kv=0.1200 pf=0.92 kW=0.376027 Daily=RUR1_29
New Load.BT_324972568_325223266_2 Bus1=node_416044788.2.4 Phases=1 Model=8 zipv=(0.5,0,0.5,1,0,0,0) kv=0.1200 pf=0.92 kW=0.376027 Daily=RUR1_29
New Load.BT_324970070_325156410_1 Bus1=node_416077384.1.4 Phases=1 Model=8 zipv=(0.5,0,0.5,1,0,0,0) kv=0.1270 pf=0.92 kW=6.606849 Daily=RES1_25
New Load.BT_324970070_325156410_2 Bus1=node_416077384.2.4 Phases=1 Model=8 zipv=(0.5,0,0.5,1,0,0,0) kv=0.1270 pf=0.92 kW=6.606849 Daily=RES1_25
New Load.BT_324970070_325156410_3 Bus1=node_416077384.3.4 Phases=1 Model=8 zipv=(0.5,0,0.5,1,0,0,0) kv=0.1270 pf=0.92 kW=6.606849 Daily=RES1_25
New Load.BT_337852250_339026936_1 Bus1=node_422868389.1.4 Phases=1 Model=8 zipv=(0.5,0,0.5,1,0,0,0) kv=0.1200 pf=0.92 kW=0.138356 Daily=RUR1_29
New Load.BT_337852250_339026936_2 Bus1=node_422868389.2.4 Phases=1 Model=8 zipv=(0.5,0,0.5,1,0,0,0) kv=0.1200 pf=0.92 kW=0.138356 Daily=RUR1_29
New Load.BT_324824831_325181161_1 Bus1=node_416626088.1.4 Phases=1 Model=8 zipv=(0.5,0,0.5,1,0,0,0) kv=0.1200 pf=0.92 kW=0.150685 Daily=COM1_26
New Load.BT_324824831_325181161_2 Bus1=node_416626088.2.4 Phases=1 Model=8 zipv=(0.5,0,0.5,1,0,0,0) kv=0.1200 pf=0.92 kW=0.150685 Daily=COM1_26
New Load.BT_338522628_339054117_1 Bus1=node_417378650.1.4 Phases=1 Model=8 zipv=(0.5,0,0.5,1,0,0,0) kv=0.1200 pf=0.92 kW=0.162329 Daily=COM1_26
New Load.BT_338522628_339054117_2 Bus1=node_417378650.2.4 Phases=1 Model=8 zipv=(0.5,0,0.5,1,0,0,0) kv=0.1200 pf=0.92 kW=0.162329 Daily=COM1_26
New Load.BT_337610481_339050725_1 Bus1=node_414113521.1.4 Phases=1 Model=8 zipv=(0.5,0,0.5,1,0,0,0) kv=0.1200 pf=0.92 kW=0.436986 Daily=RUR1_29
New Load.BT_337610481_339050725_2 Bus1=node_414113521.2.4 Phases=1 Model=8 zipv=(0.5,0,0.5,1,0,0,0) kv=0.1200 pf=0.92 kW=0.436986 Daily=RUR1_29
New Load.BT_579836565_579836564_1 Bus1=node_848275762.1.4 Phases=1 Model=8 zipv=(0.5,0,0.5,1,0,0,0) kv=0.1270 pf=0.92 kW=2.135616 Daily=RES1_25
New Load.BT_579836565_579836564_2 Bus1=node_848275762.2.4 Phases=1 Model=8 zipv=(0.5,0,0.5,1,0,0,0) kv=0.1270 pf=0.92 kW=2.135616 Daily=RES1_25
New Load.BT_579836565_579836564_3 Bus1=node_848275762.3.4 Phases=1 Model=8 zipv=(0.5,0,0.5,1,0,0,0) kv=0.1270 pf=0.92 kW=2.135616 Daily=RES1_25
New Load.BT_337607258_339000263_1 Bus1=node_416318254.1.4 Phases=1 Model=8 zipv=(0.5,0,0.5,1,0,0,0) kv=0.1200 pf=0.92 kW=0.962329 Daily=RES1_25
New Load.BT_337607258_339000263_2 Bus1=node_416318254.2.4 Phases=1 Model=8 zipv=(0.5,0,0.5,1,0,0,0) kv=0.1200 pf=0.92 kW=0.962329 Daily=RES1_25
New Load.BT_324971603_325197570_1 Bus1=node_416105169.1.4 Phases=1 Model=8 zipv=(0.5,0,0.5,1,0,0,0) kv=0.1200 pf=0.92 kW=0.611644 Daily=RES1_25
New Load.BT_324971603_325197570_2 Bus1=node_416105169.2.4 Phases=1 Model=8 zipv=(0.5,0,0.5,1,0,0,0) kv=0.1200 pf=0.92 kW=0.611644 Daily=RES1_25
New Load.BT_338288705_339001743_1 Bus1=node_422759761.1.4 Phases=1 Model=8 zipv=(0.5,0,0.5,1,0,0,0) kv=0.1200 pf=0.92 kW=1.019178 Daily=RES1_25
New Load.BT_338288705_339001743_2 Bus1=node_422759761.2.4 Phases=1 Model=8 zipv=(0.5,0,0.5,1,0,0,0) kv=0.1200 pf=0.92 kW=1.019178 Daily=RES1_25
New Load.BT_324828059_325224618_1 Bus1=node_416279726.1.4 Phases=1 Model=8 zipv=(0.5,0,0.5,1,0,0,0) kv=0.1200 pf=0.92 kW=4.421918 Daily=RES1_25
New Load.BT_324828059_325224618_2 Bus1=node_416279726.2.4 Phases=1 Model=8 zipv=(0.5,0,0.5,1,0,0,0) kv=0.1200 pf=0.92 kW=4.421918 Daily=RES1_25
New Load.BT_324503696_325224417_1 Bus1=node_447549136.1.4 Phases=1 Model=8 zipv=(0.5,0,0.5,1,0,0,0) kv=0.1270 pf=0.92 kW=2.500913 Daily=RES1_25
New Load.BT_324503696_325224417_2 Bus1=node_447549136.2.4 Phases=1 Model=8 zipv=(0.5,0,0.5,1,0,0,0) kv=0.1270 pf=0.92 kW=2.500913 Daily=RES1_25
New Load.BT_324503696_325224417_3 Bus1=node_447549136.3.4 Phases=1 Model=8 zipv=(0.5,0,0.5,1,0,0,0) kv=0.1270 pf=0.92 kW=2.500913 Daily=RES1_25
New Load.BT_338286102_339028294_1 Bus1=node_422802349.1.4 Phases=1 Model=8 zipv=(0.5,0,0.5,1,0,0,0) kv=0.1200 pf=0.92 kW=0.463014 Daily=RES1_25
New Load.BT_338286102_339028294_2 Bus1=node_422802349.2.4 Phases=1 Model=8 zipv=(0.5,0,0.5,1,0,0,0) kv=0.1200 pf=0.92 kW=0.463014 Daily=RES1_25
New Load.BT_338523245_565807504_1 Bus1=node_464889993.1.4 Phases=1 Model=8 zipv=(0.5,0,0.5,1,0,0,0) kv=0.1200 pf=0.92 kW=0.291781 Daily=RES1_25
New Load.BT_338523245_565807504_2 Bus1=node_464889993.2.4 Phases=1 Model=8 zipv=(0.5,0,0.5,1,0,0,0) kv=0.1200 pf=0.92 kW=0.291781 Daily=RES1_25
New Load.BT_324972519_325224465_1 Bus1=node_416044791.1.4 Phases=1 Model=8 zipv=(0.5,0,0.5,1,0,0,0) kv=0.1200 pf=0.92 kW=0.227397 Daily=COM1_26
New Load.BT_324972519_325224465_2 Bus1=node_416044791.2.4 Phases=1 Model=8 zipv=(0.5,0,0.5,1,0,0,0) kv=0.1200 pf=0.92 kW=0.227397 Daily=COM1_26
New Load.BT_899962355_899962354_1 Bus1=node_446931806.1.4 Phases=1 Model=8 zipv=(0.5,0,0.5,1,0,0,0) kv=0.1270 pf=0.92 kW=1.939726 Daily=RES1_25
New Load.BT_899962355_899962354_2 Bus1=node_446931806.2.4 Phases=1 Model=8 zipv=(0.5,0,0.5,1,0,0,0) kv=0.1270 pf=0.92 kW=1.939726 Daily=RES1_25
New Load.BT_899962355_899962354_3 Bus1=node_446931806.3.4 Phases=1 Model=8 zipv=(0.5,0,0.5,1,0,0,0) kv=0.1270 pf=0.92 kW=1.939726 Daily=RES1_25
New Load.BT_324343739_325156424_1 Bus1=node_416076709.1.4 Phases=1 Model=8 zipv=(0.5,0,0.5,1,0,0,0) kv=0.1200 pf=0.92 kW=0.206849 Daily=RES1_25
New Load.BT_324343739_325156424_2 Bus1=node_416076709.2.4 Phases=1 Model=8 zipv=(0.5,0,0.5,1,0,0,0) kv=0.1200 pf=0.92 kW=0.206849 Daily=RES1_25
New Load.BT_338287450_338963793_1 Bus1=node_422760349.1.4 Phases=1 Model=8 zipv=(0.5,0,0.5,1,0,0,0) kv=0.1200 pf=0.92 kW=0.678082 Daily=RES1_25
New Load.BT_338287450_338963793_2 Bus1=node_422760349.2.4 Phases=1 Model=8 zipv=(0.5,0,0.5,1,0,0,0) kv=0.1200 pf=0.92 kW=0.678082 Daily=RES1_25
New Load.BT_324503743_325260040_1 Bus1=node_416076706.1.4 Phases=1 Model=8 zipv=(0.5,0,0.5,1,0,0,0) kv=0.1200 pf=0.92 kW=0.159589 Daily=RUR1_29
New Load.BT_324503743_325260040_2 Bus1=node_416076706.2.4 Phases=1 Model=8 zipv=(0.5,0,0.5,1,0,0,0) kv=0.1200 pf=0.92 kW=0.159589 Daily=RUR1_29
New Load.BT_338059181_339025303_1 Bus1=node_422751778.1.4 Phases=1 Model=8 zipv=(0.5,0,0.5,1,0,0,0) kv=0.1200 pf=0.92 kW=0.038356 Daily=RUR1_29
New Load.BT_338059181_339025303_2 Bus1=node_422751778.2.4 Phases=1 Model=8 zipv=(0.5,0,0.5,1,0,0,0) kv=0.1200 pf=0.92 kW=0.038356 Daily=RUR1_29
New Load.BT_324344493_325224458_1 Bus1=node_416136004.1.4 Phases=1 Model=8 zipv=(0.5,0,0.5,1,0,0,0) kv=0.1200 pf=0.92 kW=0.265068 Daily=RES1_25
New Load.BT_324344493_325224458_2 Bus1=node_416136004.2.4 Phases=1 Model=8 zipv=(0.5,0,0.5,1,0,0,0) kv=0.1200 pf=0.92 kW=0.265068 Daily=RES1_25
New Load.BT_324345789_325180785_1 Bus1=node_416103651.1.4 Phases=1 Model=8 zipv=(0.5,0,0.5,1,0,0,0) kv=0.1200 pf=0.92 kW=0.266438 Daily=RES1_25
New Load.BT_324345789_325180785_2 Bus1=node_416103651.2.4 Phases=1 Model=8 zipv=(0.5,0,0.5,1,0,0,0) kv=0.1200 pf=0.92 kW=0.266438 Daily=RES1_25
New Load.BT_338058343_680238304_1 Bus1=node_422754076.1.4 Phases=1 Model=8 zipv=(0.5,0,0.5,1,0,0,0) kv=0.1200 pf=0.92 kW=1.962329 Daily=RES1_25
New Load.BT_338058343_680238304_2 Bus1=node_422754076.2.4 Phases=1 Model=8 zipv=(0.5,0,0.5,1,0,0,0) kv=0.1200 pf=0.92 kW=1.962329 Daily=RES1_25
New Load.BT_336910739_338962211_1 Bus1=node_422759773.1.4 Phases=1 Model=8 zipv=(0.5,0,0.5,1,0,0,0) kv=0.1200 pf=0.92 kW=0.130137 Daily=RES1_25
New Load.BT_336910739_338962211_2 Bus1=node_422759773.2.4 Phases=1 Model=8 zipv=(0.5,0,0.5,1,0,0,0) kv=0.1200 pf=0.92 kW=0.130137 Daily=RES1_25
New Load.BT_324662048_2687129394_1 Bus1=node_447104164.1.4 Phases=1 Model=8 zipv=(0.5,0,0.5,1,0,0,0) kv=0.1270 pf=0.92 kW=1.545662 Daily=RES1_25
New Load.BT_324662048_2687129394_2 Bus1=node_447104164.2.4 Phases=1 Model=8 zipv=(0.5,0,0.5,1,0,0,0) kv=0.1270 pf=0.92 kW=1.545662 Daily=RES1_25
New Load.BT_324662048_2687129394_3 Bus1=node_447104164.3.4 Phases=1 Model=8 zipv=(0.5,0,0.5,1,0,0,0) kv=0.1270 pf=0.92 kW=1.545662 Daily=RES1_25
New Load.BT_324343088_2228229632_1 Bus1=node_416627141.1.4 Phases=1 Model=8 zipv=(0.5,0,0.5,1,0,0,0) kv=0.1200 pf=0.92 kW=0.202055 Daily=COM1_26
New Load.BT_324343088_2228229632_2 Bus1=node_416627141.2.4 Phases=1 Model=8 zipv=(0.5,0,0.5,1,0,0,0) kv=0.1200 pf=0.92 kW=0.202055 Daily=COM1_26
New Load.BT_324345819_1605591010_1 Bus1=node_416079610.1.4 Phases=1 Model=8 zipv=(0.5,0,0.5,1,0,0,0) kv=0.1200 pf=0.92 kW=0.607534 Daily=RES1_25
New Load.BT_324345819_1605591010_2 Bus1=node_416079610.2.4 Phases=1 Model=8 zipv=(0.5,0,0.5,1,0,0,0) kv=0.1200 pf=0.92 kW=0.607534 Daily=RES1_25
New Load.BT_324825485_325224419_1 Bus1=node_416076466.1.4 Phases=1 Model=8 zipv=(0.5,0,0.5,1,0,0,0) kv=0.1270 pf=0.92 kW=3.092237 Daily=RES1_25
New Load.BT_324825485_325224419_2 Bus1=node_416076466.2.4 Phases=1 Model=8 zipv=(0.5,0,0.5,1,0,0,0) kv=0.1270 pf=0.92 kW=3.092237 Daily=RES1_25
New Load.BT_324825485_325224419_3 Bus1=node_416076466.3.4 Phases=1 Model=8 zipv=(0.5,0,0.5,1,0,0,0) kv=0.1270 pf=0.92 kW=3.092237 Daily=RES1_25
New Load.BT_324970545_325183582_1 Bus1=node_416277986.1.4 Phases=1 Model=8 zipv=(0.5,0,0.5,1,0,0,0) kv=0.1200 pf=0.92 kW=0.081507 Daily=COM1_26
New Load.BT_324970545_325183582_2 Bus1=node_416277986.2.4 Phases=1 Model=8 zipv=(0.5,0,0.5,1,0,0,0) kv=0.1200 pf=0.92 kW=0.081507 Daily=COM1_26
New Load.BT_338285630_338962195_1 Bus1=node_422759797.1.4 Phases=1 Model=8 zipv=(0.5,0,0.5,1,0,0,0) kv=0.1200 pf=0.92 kW=0.145205 Daily=RUR1_29
New Load.BT_338285630_338962195_2 Bus1=node_422759797.2.4 Phases=1 Model=8 zipv=(0.5,0,0.5,1,0,0,0) kv=0.1200 pf=0.92 kW=0.145205 Daily=RUR1_29
New Load.BT_337609074_964286404_1 Bus1=node_423621784.1.4 Phases=1 Model=8 zipv=(0.5,0,0.5,1,0,0,0) kv=0.1200 pf=0.92 kW=0.317123 Daily=COM1_26
New Load.BT_337609074_964286404_2 Bus1=node_423621784.2.4 Phases=1 Model=8 zipv=(0.5,0,0.5,1,0,0,0) kv=0.1200 pf=0.92 kW=0.317123 Daily=COM1_26
New Load.BT_324504240_325197576_1 Bus1=node_416044050.1.4 Phases=1 Model=8 zipv=(0.5,0,0.5,1,0,0,0) kv=0.1270 pf=0.92 kW=0.971233 Daily=RES1_25
New Load.BT_324504240_325197576_2 Bus1=node_416044050.2.4 Phases=1 Model=8 zipv=(0.5,0,0.5,1,0,0,0) kv=0.1270 pf=0.92 kW=0.971233 Daily=RES1_25
New Load.BT_324504240_325197576_3 Bus1=node_416044050.3.4 Phases=1 Model=8 zipv=(0.5,0,0.5,1,0,0,0) kv=0.1270 pf=0.92 kW=0.971233 Daily=RES1_25
...

! --- cargas de media tensao (UCMT_tab) ---
New Load.MT_node_436666056_0 Bus1=node_436666056.1.2.3 Phases=3 Conn=wye Model=8 zipv=(0.5,0,0.5,1,0,0,0) kv=13.8000 pf=0.92 kW=1.1233 Daily=MT1_1
